5
gdb 1	157.7118	157.70997	157.70699	0.	13.21	-0.3877	0.1171	0.5048	35.3641	0.044749	-40.47893	-40.476062	-40.475117	-40.498597	6.469	
C	-0.0126981359	 1.0858041578	 0.0080009958	-0.535689
H	 0.002150416	-0.0060313176	 0.0019761204	 0.133921
H	 1.0117308433	 1.4637511618	 0.0002765748	 0.133922
H	-0.540815069	 1.4475266138	-0.8766437152	 0.133923
H	-0.5238136345	 1.4379326443	 0.9063972942	 0.133923